Version 4
SHEET 1 1920 680
WIRE -128 -512 -288 -512
WIRE -48 -512 -128 -512
WIRE 112 -512 32 -512
WIRE 176 -512 112 -512
WIRE 256 -512 176 -512
WIRE 1008 -512 848 -512
WIRE 1088 -512 1008 -512
WIRE 1248 -512 1168 -512
WIRE 1312 -512 1248 -512
WIRE 1392 -512 1312 -512
WIRE 1472 -512 1392 -512
WIRE 112 -480 112 -512
WIRE 256 -480 256 -512
WIRE 1248 -480 1248 -512
WIRE 1392 -480 1392 -512
WIRE 112 -352 112 -416
WIRE 256 -352 256 -400
WIRE 1248 -352 1248 -416
WIRE 1392 -352 1392 -400
WIRE 512 -192 368 -192
WIRE 624 -192 512 -192
WIRE 1472 -160 1472 -512
WIRE 1104 -96 992 -96
WIRE 1264 -96 1168 -96
WIRE 624 -64 624 -192
WIRE 368 0 368 -192
WIRE 992 32 992 -96
WIRE 1040 32 992 32
WIRE 1152 32 1104 32
WIRE 1264 32 1264 -96
WIRE 1264 32 1232 32
WIRE 48 64 -64 64
WIRE 208 64 112 64
WIRE 624 64 624 16
WIRE 944 96 912 96
WIRE 992 96 992 32
WIRE 992 96 944 96
WIRE 1136 96 992 96
WIRE 1264 96 1264 32
WIRE 1472 96 1472 -80
WIRE 1472 96 1264 96
WIRE 1136 128 1136 96
WIRE 1216 144 1184 144
WIRE 1216 160 1216 144
WIRE -64 192 -64 64
WIRE -16 192 -64 192
WIRE 96 192 48 192
WIRE 208 192 208 64
WIRE 208 192 176 192
WIRE 1264 192 1264 96
WIRE 1264 192 1184 192
WIRE 1136 240 1136 208
WIRE -112 256 -144 256
WIRE -64 256 -64 192
WIRE -64 256 -112 256
WIRE 80 256 -64 256
WIRE 208 256 208 192
WIRE 368 256 368 80
WIRE 368 256 208 256
WIRE 80 288 80 256
WIRE 160 304 128 304
WIRE 160 320 160 304
WIRE 208 352 208 256
WIRE 208 352 128 352
WIRE 80 400 80 368
FLAG 80 400 0
FLAG 160 320 0
FLAG 624 64 0
FLAG -112 256 FB
FLAG 112 -352 0
FLAG 256 -352 0
FLAG 512 -192 Vin
FLAG -128 -512 Vin
FLAG 176 -512 VLC
FLAG 1248 -352 0
FLAG 1392 -352 0
FLAG 1008 -512 Vin
FLAG 1312 -512 Vout
FLAG 1136 240 0
FLAG 1216 160 0
FLAG 944 96 FB2
SYMBOL voltage 624 -80 R0
WINDOW 123 24 44 Left 2
WINDOW 39 0 0 Left 2
SYMATTR InstName V1
SYMATTR Value 0
SYMATTR Value2 AC 1
SYMBOL e 80 272 M0
SYMATTR InstName E1
SYMATTR Value 10000
SYMBOL res 384 96 R180
WINDOW 0 36 76 Left 2
WINDOW 3 36 40 Left 2
SYMATTR InstName R1
SYMATTR Value {R1}
SYMBOL res 80 208 R270
WINDOW 0 32 56 VTop 2
WINDOW 3 0 56 VBottom 2
SYMATTR InstName R3
SYMATTR Value 16k
SYMBOL cap 48 176 R90
WINDOW 0 0 32 VBottom 2
WINDOW 3 32 32 VTop 2
SYMATTR InstName C3
SYMATTR Value 10n
SYMBOL cap 112 48 R90
WINDOW 0 0 32 VBottom 2
WINDOW 3 32 32 VTop 2
SYMATTR InstName C4
SYMATTR Value 200p
SYMBOL ind -64 -496 R270
WINDOW 0 32 56 VTop 2
WINDOW 3 5 56 VBottom 2
SYMATTR InstName L1
SYMATTR Value 1.5µ
SYMBOL cap 96 -480 R0
SYMATTR InstName C1
SYMATTR Value 22µ
SYMBOL res 272 -384 R180
WINDOW 0 36 76 Left 2
WINDOW 3 36 40 Left 2
SYMATTR InstName R4
SYMATTR Value 4
SYMBOL ind 1072 -496 R270
WINDOW 0 32 56 VTop 2
WINDOW 3 5 56 VBottom 2
SYMATTR InstName L2
SYMATTR Value 1.5µ
SYMBOL cap 1232 -480 R0
SYMATTR InstName C5
SYMATTR Value 22µ
SYMBOL res 1408 -384 R180
WINDOW 0 36 76 Left 2
WINDOW 3 36 40 Left 2
SYMATTR InstName R5
SYMATTR Value 4
SYMBOL e 1136 112 M0
SYMATTR InstName E2
SYMATTR Value 10000
SYMBOL res 1488 -64 R180
WINDOW 0 36 76 Left 2
WINDOW 3 36 40 Left 2
SYMATTR InstName R6
SYMATTR Value 600k
SYMBOL res 1136 48 R270
WINDOW 0 32 56 VTop 2
WINDOW 3 0 56 VBottom 2
SYMATTR InstName R7
SYMATTR Value 16k
SYMBOL cap 1104 16 R90
WINDOW 0 0 32 VBottom 2
WINDOW 3 32 32 VTop 2
SYMATTR InstName C7
SYMATTR Value 10n
SYMBOL cap 1168 -112 R90
WINDOW 0 0 32 VBottom 2
WINDOW 3 32 32 VTop 2
SYMATTR InstName C8
SYMATTR Value 200p
TEXT 464 376 Left 2 !.ac dec 20 0.01m 1MEG
TEXT 432 416 Left 2 !.step param R1 LIST 8.2k 100k 10MEG
