Version 4
SHEET 1 1392 680
WIRE 896 -48 784 -48
WIRE 784 -16 784 -48
WIRE -64 96 -96 96
WIRE 0 96 -64 96
WIRE 128 96 80 96
WIRE 192 96 128 96
WIRE 784 96 784 64
WIRE 1008 112 832 112
WIRE 192 128 192 96
WIRE 896 160 896 -48
WIRE 832 176 832 112
WIRE 864 176 832 176
WIRE 1008 192 1008 112
WIRE 1008 192 928 192
WIRE 1040 192 1008 192
WIRE 1168 192 1120 192
WIRE 1184 192 1168 192
WIRE -96 208 -96 96
WIRE 736 208 704 208
WIRE 864 208 736 208
WIRE 192 240 192 208
WIRE 1184 240 1184 192
WIRE 192 256 192 240
WIRE 896 320 896 224
WIRE 1184 352 1184 304
WIRE -96 384 -96 288
WIRE 192 384 192 320
WIRE 896 448 896 400
FLAG -96 384 0
FLAG 192 384 0
FLAG 128 96 out1
FLAG -64 96 Vin
FLAG 192 240 out2
FLAG 784 96 0
FLAG 896 448 0
FLAG 1184 352 0
FLAG 736 208 Vin
FLAG 1168 192 Out3
SYMBOL res 96 80 R90
WINDOW 0 0 56 VBottom 2
WINDOW 3 32 56 VTop 2
SYMATTR InstName Ro
SYMATTR Value 100
SYMBOL res 208 224 R180
WINDOW 0 36 76 Left 2
WINDOW 3 36 40 Left 2
SYMATTR InstName R1
SYMATTR Value 100
SYMBOL cap 176 256 R0
SYMATTR InstName C1
SYMATTR Value 680p
SYMBOL voltage -96 192 R0
WINDOW 123 24 124 Left 2
WINDOW 39 0 0 Left 2
SYMATTR InstName Vin
SYMATTR Value ""
SYMATTR Value2 AC 1
SYMBOL voltage 784 -32 R0
WINDOW 3 39 58 Left 2
WINDOW 123 24 124 Left 2
WINDOW 39 0 0 Left 2
SYMATTR InstName Vcc+
SYMATTR Value 15
SYMBOL voltage 896 304 R0
WINDOW 3 39 58 Left 2
WINDOW 123 24 124 Left 2
WINDOW 39 0 0 Left 2
SYMATTR InstName Vcc-
SYMATTR Value -15
SYMBOL cap 1168 240 R0
SYMATTR InstName C2
SYMATTR Value 680p
SYMBOL res 1024 208 R270
WINDOW 0 32 56 VTop 2
WINDOW 3 0 56 VBottom 2
SYMATTR InstName R2
SYMATTR Value {RL}
SYMBOL Opamps\\LT1128 896 128 R0
SYMATTR InstName U2
TEXT 288 200 Left 2 !.ac dec 30 0.001 100MEG
TEXT 1040 8 Left 2 !.step param RL LIST 0.1 10 270
